Output_case2/output_current_1440.csv
# Output_case2\output_current_1440.csv run at 2000-01-02 00:00:00 EST on 907 links
link_name,currA_mag,currA_angle,currB_mag,currB_angle,currC_mag,currC_angle
Source_Impedance,0.515783,-0.230079,0.516908,3.784915,0.436780,1.775085
TR1,0.515783,-0.230079,0.516908,3.784915,0.436780,1.775085
LINE1,11.524781,-0.841184,15.649325,3.347770,11.579056,1.252475
LINE2,11.524781,-0.841184,15.649325,3.347770,11.579056,1.252475
LINE3,11.524781,-0.841184,15.649325,3.347770,11.579056,1.252475
LINE4,11.524781,-0.841184,15.649325,3.347770,11.579056,1.252475
LINE5,11.524781,-0.841184,15.649325,3.347770,11.579056,1.252475
LINE6,11.524781,-0.841184,15.649325,3.347770,11.579056,1.252475
LINE7,11.524781,-0.841184,15.649325,3.347770,11.579056,1.252475
LINE8,11.524781,-0.841184,15.649325,3.347770,11.579056,1.252475
LINE9,11.524781,-0.841184,15.649325,3.347770,11.579056,1.252475
LINE10,11.524781,-0.841184,15.649325,3.347770,11.579056,1.252475
LINE11,11.524781,-0.841184,15.649325,3.347770,11.579056,1.252475
LINE12,11.524781,-0.841184,15.649325,3.347770,11.579056,1.252475
LINE13,11.524781,-0.841184,15.649325,3.347770,11.579056,1.252475
LINE14,11.524781,-0.841184,15.649325,3.347770,11.579056,1.252475
LINE15,0.000000,3.978831,0.000000,2.926672,0.000000,1.683658
LINE16,11.524781,-0.841184,15.649325,3.347770,11.579056,1.252475
LINE17,0.000000,3.116661,0.000000,2.773637,0.000000,1.762154
LINE18,11.524781,-0.841184,15.649325,3.347770,11.579056,1.252475
LINE19,0.000000,2.951512,0.000000,2.653013,0.000000,4.593980
LINE20,11.524781,-0.841184,15.649325,3.347770,11.579056,1.252475
LINE21,0.000000,2.736154,0.000000,2.473160,0.000000,4.667440
LINE22,11.524781,-0.841184,15.649325,3.347770,11.579056,1.252475
LINE23,0.000000,2.558061,0.000000,3.033520,0.000000,4.624066
LINE24,11.524781,-0.841184,15.649325,3.347770,11.579056,1.252475
LINE25,0.000000,3.116661,0.000000,3.314056,0.000000,4.585275
LINE26,1.599709,-0.841478,0.000000,-1.273841,0.000000,-1.535476
LINE27,9.925073,-0.841136,15.649325,3.347770,11.579056,1.252475
LINE28,0.000000,3.760162,0.000000,3.361639,0.000000,4.634771
LINE29,0.150359,-0.841488,0.000000,3.628147,0.000000,1.531443
LINE30,1.449350,-0.841478,0.000000,-1.291767,0.000000,-1.568899
LINE31,9.925073,-0.841136,15.649325,3.347770,11.579056,1.252475
LINE32,0.000000,4.687457,0.000000,3.427659,0.000000,4.545833
LINE33,0.150359,-0.841488,0.000000,-0.357061,0.000000,4.425903
LINE34,1.449350,-0.841478,0.000000,4.349624,0.000000,4.584709
LINE35,0.000000,1.176922,0.472362,3.347239,0.000000,1.332238
LINE36,9.925073,-0.841136,15.176963,3.347787,11.579056,1.252475
LINE37,0.000000,4.168311,0.000000,3.327754,0.000000,4.623579
LINE38,1.449350,-0.841478,0.000000,3.725715,0.000000,1.536203
LINE39,0.000000,1.410325,0.234091,3.347239,0.000000,1.398386
LINE40,0.000000,2.029537,0.238271,3.347239,0.000000,4.426419
LINE41,9.925073,-0.841136,15.176963,3.347787,11.579056,1.252475
LINE42,0.000000,2.271303,0.000000,-0.357611,0.000000,1.903462
LINE43,0.000000,3.580308,0.000000,3.580308,0.000000,4.683551
LINE44,1.449350,-0.841478,0.000000,3.967020,0.000000,-1.031359
LINE45,0.000000,1.870432,0.234091,3.347239,0.000000,0.339859
LINE46,0.000000,0.150346,0.238271,3.347239,0.000000,4.592286
LINE47,9.925073,-0.841136,15.176963,3.347787,11.579056,1.252475
LINE48,0.000000,2.269323,0.000000,-0.264324,0.000000,2.182025
LINE49,0.000000,2.951512,0.000000,0.000000,0.000000,4.661096
LINE50,1.449350,-0.841478,0.000000,0.405869,0.000000,1.490656
LINE51,0.000000,1.800507,0.234091,3.347239,0.000000,-1.526104
LINE52,9.925073,-0.841136,15.176963,3.347787,11.579056,1.252475
LINE53,0.000000,-0.353954,0.000000,2.092426,0.000000,0.938509
LINE54,0.000000,2.428170,0.000000,-0.205353,0.000000,1.643387
LINE55,0.000000,3.116661,0.000000,3.116661,0.000000,4.597854
LINE56,1.449350,-0.841478,0.000000,0.611096,0.000000,-1.389972
LINE57,0.000000,2.487801,0.234091,3.347239,0.000000,-1.223310
LINE58,9.925073,-0.841136,15.176963,3.347787,11.579056,1.252475
LINE59,0.000000,-0.340206,0.000000,1.301750,0.000000,0.763217
LINE60,0.000000,2.305345,0.000000,-0.267604,0.000000,1.251068
LINE61,0.000000,3.179080,0.000000,2.653013,0.000000,4.676715
LINE62,1.449350,-0.841478,0.000000,0.371980,0.000000,4.657853
LINE63,0.000000,1.528540,0.234091,3.347239,0.000000,1.095235
LINE64,7.760594,-0.841097,15.176963,3.347787,11.579056,1.252475
LINE65,2.164479,-0.841279,0.000000,0.144383,0.000000,1.060416
LINE66,0.000000,0.123844,0.000000,1.443622,0.000000,1.203122
LINE67,0.000000,1.683686,0.000000,-0.125936,0.000000,1.203501
LINE68,0.000000,3.116661,0.000000,2.794910,0.000000,3.116661
LINE69,1.449350,-0.841478,0.000000,1.040734,0.000000,1.537171
LINE70,0.000000,2.203853,0.234091,3.347239,0.000000,-1.465184
LINE71,7.760594,-0.841097,15.176963,3.347787,11.579056,1.252475
LINE72,0.204742,-0.841286,0.000000,0.282199,0.000000,3.594280
LINE73,1.959737,-0.841278,0.000000,-0.259139,0.000000,1.593741
LINE74,0.000000,0.114054,0.000000,1.848891,0.000000,1.309486
LINE75,0.000000,2.053026,0.000000,-0.004352,0.000000,0.668770
LINE76,0.000000,3.020187,0.000000,2.620238,0.000000,1.686531
LINE77,0.000000,1.436737,0.234091,3.347239,0.000000,1.209594
LINE78,7.760594,-0.841097,15.176963,3.347787,11.579056,1.252475
LINE79,0.000000,0.247595,0.000000,2.461582,0.000000,1.537367
LINE80,0.000000,1.985367,0.000000,0.026082,0.000000,0.828977
LINE81,0.000000,3.033520,0.000000,2.653013,0.000000,1.716076
LINE82,0.000000,3.098332,0.234091,3.347239,0.000000,4.612791
LINE83,7.760594,-0.841097,15.176963,3.347787,11.579056,1.252475
LINE84,0.000000,-1.103431,0.000000,2.221484,0.000000,1.160536
LINE85,0.000000,1.963502,0.000000,0.041798,0.000000,0.771891
LINE86,0.000000,3.054242,0.000000,2.871682,0.000000,1.636194
LINE87,7.760594,-0.841097,15.176963,3.347787,11.579056,1.252475
LINE88,0.000000,-0.141778,0.000000,2.939962,0.000000,2.886203
LINE89,0.000000,1.935739,0.000000,0.053527,0.000000,0.874443
LINE90,0.000000,3.116661,0.000000,3.116661,0.000000,1.578080
LINE91,7.760594,-0.841097,15.176963,3.347787,11.579056,1.252475
LINE92,0.000000,2.207020,0.000000,-0.049055,0.000000,0.764361
LINE93,0.000000,3.116661,0.000000,2.331263,0.000000,3.116661
LINE94,7.760594,-0.841097,15.176963,3.347787,11.579056,1.252475
LINE95,0.000000,2.632454,0.000000,-0.187748,0.000000,0.941635
LINE96,0.000000,2.653013,0.000000,0.000000,0.000000,4.701128
LINE97,7.760594,-0.841097,15.176963,3.347787,11.579056,1.252475
LINE98,0.000000,3.074052,0.000000,-0.506069,0.000000,0.578791
LINE99,0.000000,2.653013,0.000000,0.438716,0.000000,4.692340
LINE100,7.760594,-0.841097,15.176963,3.347787,11.579056,1.252475
LINE101,0.000000,0.846218,0.000000,-0.948567,0.000000,0.551176
LINE102,0.000000,0.000000,0.000000,0.000000,0.000000,3.116661
LINE103,0.217277,-0.841246,1.284828,3.347567,0.443215,1.252520
LINE104,7.543317,-0.841092,13.892135,3.347807,11.135841,1.252473
LINE105,0.000000,1.014289,0.000000,4.601054,0.000000,0.716855
LINE106,0.217277,-0.841246,1.284828,3.347567,0.443215,1.252520
LINE107,7.543317,-0.841092,13.892135,3.347807,11.135841,1.252473
LINE108,0.000000,0.641688,0.000000,-1.477684,0.000000,0.680021
LINE109,0.217277,-0.841246,1.284828,3.347567,0.443215,1.252520
LINE110,7.543317,-0.841092,13.892135,3.347807,11.135841,1.252473
LINE111,0.000000,0.716061,0.000000,-1.411587,0.000000,0.803864
LINE112,0.217277,-0.841246,1.284828,3.347567,0.443215,1.252520
LINE113,7.543317,-0.841092,13.892135,3.347807,11.135841,1.252473
LINE114,0.000000,0.720058,0.000000,-1.399201,0.000000,0.781619
LINE115,0.217277,-0.841246,1.284828,3.347567,0.443215,1.252520
LINE116,0.213108,-0.841221,4.551936,3.347737,2.752350,1.252491
LINE117,7.330209,-0.841089,9.340199,3.347841,8.383491,1.252467
LINE118,0.000000,0.654020,0.000000,-1.503517,0.000000,0.711460
LINE119,0.217277,-0.841246,1.284828,3.347567,0.443215,1.252520
LINE120,0.000000,2.711769,0.000000,-0.108073,0.000000,4.696131
LINE121,0.213108,-0.841221,4.551936,3.347737,2.752350,1.252491
LINE122,7.330209,-0.841089,9.340199,3.347841,8.383491,1.252467
LINE123,0.000000,0.653149,0.000000,-1.453602,0.000000,0.738420
LINE124,0.217277,-0.841246,1.284828,3.347567,0.443215,1.252520
LINE125,0.000000,2.653013,0.000000,-0.124601,0.000000,4.700738
LINE126,0.213108,-0.841221,4.551936,3.347737,2.752350,1.252491
LINE127,7.330209,-0.841089,9.340199,3.347841,8.383491,1.252467
LINE128,0.000000,0.809449,0.000000,4.711713,0.000000,1.044206
LINE129,0.217277,-0.841246,1.284828,3.347567,0.443215,1.252520
LINE130,0.000000,2.871682,0.000000,0.099423,0.000000,4.702104
LINE131,0.213108,-0.841221,0.000000,4.426353,0.000000,1.220301
LINE132,0.000000,4.614734,4.551936,3.347737,2.752350,1.252491
LINE133,7.330209,-0.841089,9.340199,3.347841,8.383491,1.252467
LINE134,0.000000,0.555786,0.000000,-1.238630,0.000000,1.040497
LINE135,0.217277,-0.841246,1.284828,3.347567,0.443215,1.252520
LINE136,0.000000,3.116661,0.000000,-0.024932,0.000000,4.698633
LINE137,0.213108,-0.841221,0.000000,4.458338,0.000000,1.126233
LINE138,0.000000,4.617568,4.551936,3.347737,2.752350,1.252491
LINE139,7.330209,-0.841089,9.340199,3.347841,8.383491,1.252467
LINE140,0.000000,0.498531,0.000000,-1.173793,0.000000,1.133738
LINE141,0.217277,-0.841246,1.284828,3.347567,0.443215,1.252520
LINE142,0.000000,2.871682,0.000000,0.058209,0.000000,4.699663
LINE143,0.213108,-0.841221,0.000000,4.224370,0.000000,0.532428
LINE144,0.000000,4.596799,4.551936,3.347737,2.752350,1.252491
LINE145,7.330209,-0.841089,9.340199,3.347841,8.383491,1.252467
LINE146,0.000000,0.627498,0.000000,-0.808186,0.000000,0.373635
LINE147,0.217277,-0.841246,1.284828,3.347567,0.443215,1.252520
LINE148,0.000000,2.825204,0.000000,-0.149287,0.000000,4.696856
LINE149,0.213108,-0.841221,0.000000,4.274629,0.000000,-0.921631
LINE150,0.000000,4.708992,0.000000,1.909774,2.752350,1.252491
LINE151,0.000000,2.912136,4.551936,3.347737,0.000000,1.492453
LINE152,7.330209,-0.841089,9.340199,3.347841,8.383491,1.252467
LINE153,0.000000,0.504265,0.000000,4.628037,0.000000,0.679555
LINE154,0.217277,-0.841246,1.284828,3.347567,0.443215,1.252520
LINE155,0.000000,2.871682,0.000000,-0.668433,0.000000,4.698931
LINE156,0.213108,-0.841221,0.000000,4.302695,0.000000,-1.410860
LINE157,0.000000,4.692829,0.000000,1.889922,2.752350,1.252491
LINE158,0.000000,2.786875,4.551936,3.347737,0.000000,1.506053
LINE159,7.330209,-0.841089,9.340199,3.347841,8.383491,1.252467
LINE160,0.000000,0.767769,0.000000,-0.637119,0.000000,1.196253
LINE161,0.000000,2.060486,0.878883,3.347571,0.000000,4.652292
LINE162,0.217277,-0.841246,0.405946,3.347559,0.443215,1.252520
LINE163,0.000000,2.653013,0.000000,-0.024932,0.000000,4.698199
LINE164,0.213108,-0.841221,0.000000,4.171751,0.000000,-1.237055
LINE165,0.000000,4.690457,0.000000,1.903848,2.752350,1.252491
LINE166,0.000000,2.870785,4.551936,3.347737,0.000000,1.545203
LINE167,7.330209,-0.841089,9.340199,3.347841,8.383491,1.252467
LINE168,0.000000,-1.167850,0.000000,1.066889,0.000000,0.673700
LINE169,0.000000,1.722446,0.878883,3.347571,0.000000,4.632736
LINE170,0.217277,-0.841246,0.405946,3.347559,0.443215,1.252520
LINE171,0.000000,2.871682,0.000000,0.220047,0.000000,-1.550837
LINE172,0.213108,-0.841221,0.000000,4.193101,0.000000,-1.414257
LINE173,0.000000,4.419200,0.000000,1.975653,0.000000,0.566536
LINE174,0.000000,-0.192148,0.000000,-0.807134,2.752350,1.252491
LINE175,0.000000,2.820469,4.551936,3.347737,0.000000,-1.309137
LINE176,7.330209,-0.841089,9.340199,3.347841,8.383491,1.252467
LINE177,0.000000,2.433875,0.878883,3.347571,0.000000,0.032168
LINE178,0.217277,-0.841246,0.405946,3.347559,0.000000,-1.501379
LINE179,0.000000,2.739712,0.000000,4.013249,0.443215,1.252520
LINE180,0.000000,3.116661,0.000000,-0.024932,0.000000,-1.545965
LINE181,0.213108,-0.841221,0.000000,4.230282,0.000000,-1.434372
LINE182,0.000000,4.482121,0.000000,1.917165,0.000000,0.578588
LINE183,0.000000,-0.160794,0.000000,-0.861627,2.752350,1.252491
LINE184,0.000000,2.820311,4.551936,3.347737,0.000000,-1.441818
LINE185,7.330209,-0.841089,9.340199,3.347841,8.383491,1.252467
LINE186,0.217277,-0.841246,0.405946,3.347559,0.000000,-1.276229
LINE187,0.000000,2.733919,0.000000,4.012102,0.443215,1.252520
LINE188,0.000000,2.653013,0.000000,0.438716,0.000000,3.116661
LINE189,0.213108,-0.841221,0.000000,4.258100,0.000000,-1.475243
LINE190,0.000000,1.002076,0.000000,-0.279997,0.000000,3.403406
LINE191,0.000000,-1.394394,0.000000,2.089470,0.000000,0.779090
LINE192,0.000000,-0.125719,0.000000,-0.897594,2.752350,1.252491
LINE193,0.000000,2.928107,4.551936,3.347737,0.000000,-1.260090
LINE194,7.330209,-0.841089,9.340199,3.347841,8.383491,1.252467
LINE195,0.217277,-0.841246,0.405946,3.347559,0.000000,-1.524122
LINE196,0.000000,2.708275,0.000000,0.050340,0.221607,1.252520
LINE197,0.000000,2.753926,0.000000,3.977783,0.221607,1.252520
LINE198,0.000000,1.545864,0.000000,0.760466,0.000000,1.587832
LINE199,0.213108,-0.841221,0.000000,4.255474,0.000000,-0.802845
LINE200,0.000000,1.383926,0.000000,-0.976454,0.000000,-1.563787
LINE201,0.000000,-1.435086,0.000000,2.393157,0.000000,0.592528
LINE202,0.000000,-0.115026,0.000000,-0.904887,2.752350,1.252491
LINE203,0.000000,2.892824,4.551936,3.347737,0.000000,-1.307005
LINE204,7.330209,-0.841089,9.340199,3.347841,8.383491,1.252467
LINE205,0.217277,-0.841246,0.000000,-1.016137,0.000000,1.607957
LINE206,0.000000,1.306452,0.405946,3.347559,0.000000,4.696085
LINE207,0.000000,1.536909,0.000000,2.683478,0.221607,1.252520
LINE208,0.000000,2.688251,0.000000,4.040942,0.221607,1.252520
LINE209,0.000000,3.116661,0.000000,0.760466,0.000000,4.689410
LINE210,0.213108,-0.841221,0.000000,4.141152,0.000000,-1.348819
LINE211,0.000000,-1.326351,0.000000,2.169070,0.000000,0.332072
LINE212,0.000000,-0.005376,0.000000,-0.838856,2.752350,1.252491
LINE213,0.000000,2.688224,4.551936,3.347737,0.000000,-0.775372
LINE214,7.330209,-0.841089,9.340199,3.347841,8.383491,1.252467
LINE215,0.217277,-0.841246,0.000000,0.776645,0.000000,1.556313
LINE216,0.000000,1.399372,0.405946,3.347559,0.000000,4.437372
LINE217,0.000000,2.591782,0.000000,3.760451,0.221607,1.252520
LINE218,0.000000,0.000000,0.000000,0.000000,0.000000,3.116661
LINE219,0.213108,-0.841221,0.000000,4.120196,0.000000,-1.301356
LINE220,0.000000,-0.144022,0.000000,2.123449,0.000000,0.325419
LINE221,0.000000,-0.084193,0.000000,-0.912838,2.752350,1.252491
LINE222,0.000000,2.591755,4.551936,3.347737,0.000000,-0.113754
LINE223,7.330209,-0.841089,9.340199,3.347841,8.383491,1.252467
LINE224,0.217277,-0.841246,0.000000,2.346620,0.000000,1.419878
LINE225,0.000000,0.997212,0.405946,3.347559,0.000000,3.284205
LINE226,0.000000,2.133849,0.000000,3.838825,0.221607,1.252520
LINE227,0.213108,-0.841221,0.000000,4.274240,0.000000,-1.414636
LINE228,0.000000,-0.483803,0.000000,2.514554,0.000000,0.389778
LINE229,0.000000,-0.186625,0.000000,-0.955506,2.752350,1.252491
LINE230,0.000000,2.531214,4.551936,3.347737,0.000000,-0.034837
LINE231,7.330209,-0.841089,9.340199,3.347841,8.383491,1.252467
LINE232,0.000000,-0.587066,0.405946,3.347559,0.000000,-1.566350
LINE233,0.000000,2.085940,0.000000,-1.443583,0.000000,0.650083
LINE234,0.000000,-0.046837,0.000000,3.739040,0.221607,1.252520
LINE235,0.213108,-0.841221,0.000000,3.825844,0.000000,1.559699
LINE236,0.000000,-0.571878,0.000000,2.781873,0.000000,0.310437
LINE237,0.000000,-0.242030,0.000000,-1.104830,2.752350,1.252491
LINE238,0.000000,2.624327,4.551936,3.347737,0.000000,-1.440857
LINE239,7.330209,-0.841089,9.340199,3.347841,8.383491,1.252467
LINE240,0.000000,-0.488280,0.405946,3.347559,0.000000,-1.554522
LINE241,0.000000,3.111976,0.000000,4.425377,0.221607,1.252520
LINE242,0.213108,-0.841221,0.000000,4.262742,0.000000,1.591066
LINE243,0.000000,-0.692362,0.000000,2.813505,0.000000,0.807979
LINE244,0.000000,-0.307818,0.000000,-1.326323,2.752350,1.252491
LINE245,0.000000,2.512438,4.551936,3.347737,0.000000,-1.221184
LINE246,7.330209,-0.841089,9.340199,3.347841,8.383491,1.252467
LINE247,0.000000,3.840024,0.200880,3.347559,0.000000,1.517827
LINE248,0.000000,2.898751,0.205065,3.347559,0.000000,1.500437
LINE249,0.000000,2.707895,0.000000,0.024547,0.221607,1.252520
LINE250,0.213108,-0.841221,0.000000,-0.486666,0.000000,-1.507892
LINE251,0.000000,3.569993,0.000000,3.089988,0.000000,0.269410
LINE252,0.000000,-0.242128,0.000000,-1.278091,2.752350,1.252491
LINE253,0.000000,2.494101,4.551936,3.347737,0.000000,-0.677847
LINE254,0.647824,-0.841193,0.000000,-0.002281,0.000000,4.683609
LINE255,6.682385,-0.841079,9.340199,3.347841,8.383491,1.252467
LINE256,0.000000,3.415890,0.000000,2.705502,0.221607,1.252520
LINE257,0.213108,-0.841221,0.000000,2.980059,0.000000,4.645968
LINE258,0.000000,2.986865,0.000000,3.186816,0.000000,-0.339651
LINE259,0.000000,-0.331146,0.000000,-1.297384,2.752350,1.252491
LINE260,0.000000,2.552510,4.551936,3.347737,0.000000,-1.254118
LINE261,0.647824,-0.841193,0.000000,-0.004833,0.000000,4.679450
LINE262,6.682385,-0.841079,9.340199,3.347841,8.383491,1.252467
LINE263,0.000000,1.540618,0.000000,4.591855,0.221607,1.252520
LINE264,0.213108,-0.841221,0.000000,3.983109,0.000000,4.449654
LINE265,0.000000,1.372436,0.000000,3.369929,0.000000,0.816513
LINE266,0.000000,-0.362111,0.000000,-1.349154,2.752350,1.252491
LINE267,0.000000,0.314213,4.363517,3.347738,0.000000,-1.344882
LINE268,0.000000,2.197149,0.188419,3.347706,0.000000,4.670623
LINE269,0.647824,-0.841193,0.000000,-0.028832,0.000000,4.689411
LINE270,0.000000,-0.276674,0.000000,3.425048,0.209168,1.252455
LINE271,6.682385,-0.841079,9.340199,3.347841,8.174323,1.252468
LINE272,0.213108,-0.841221,0.000000,1.257293,0.000000,4.477029
LINE273,0.000000,-0.807279,0.000000,2.557091,0.000000,1.602257
LINE274,0.000000,-0.341220,0.000000,-1.485813,2.752350,1.252491
LINE275,0.000000,3.045054,4.363517,3.347738,0.000000,1.534174
LINE276,0.000000,2.586719,0.188419,3.347706,0.000000,-1.556907
LINE277,0.647824,-0.841193,0.000000,-0.032200,0.000000,4.699172
LINE278,0.000000,-0.228997,0.000000,3.503291,0.209168,1.252455
LINE279,6.682385,-0.841079,9.340199,3.347841,8.174323,1.252468
LINE280,0.213108,-0.841221,0.000000,0.130372,0.000000,1.793476
LINE281,0.000000,1.301500,0.000000,4.446822,0.000000,2.657796
LINE282,0.000000,0.189366,0.000000,-1.333429,2.752350,1.252491
LINE283,0.000000,2.528115,0.188419,3.347706,0.000000,1.649605
LINE284,0.647824,-0.841193,0.000000,-0.018441,0.000000,-1.569218
LINE285,0.000000,-0.385429,0.000000,3.740879,0.209168,1.252455
LINE286,1.826822,-0.841043,4.651116,3.347823,1.179957,1.252367
LINE287,4.855564,-0.841092,4.689083,3.347859,6.994366,1.252485
LINE288,0.213108,-0.841221,0.000000,3.498693,0.000000,2.398761
LINE289,0.000000,-1.342574,0.000000,2.647076,0.000000,0.892000
LINE290,0.000000,-1.291984,0.000000,3.434833,0.225870,1.252484
LINE291,0.000000,0.494124,0.000000,-1.313937,2.526480,1.252492
LINE292,0.000000,2.434877,0.188419,3.347706,0.000000,1.644986
LINE293,0.647824,-0.841193,0.000000,-0.023674,0.000000,-1.562226
LINE294,0.000000,-0.376908,0.000000,3.792757,0.209168,1.252455
LINE295,1.826822,-0.841043,4.651116,3.347823,1.179957,1.252367
LINE296,4.855564,-0.841092,4.689083,3.347859,6.994366,1.252485
LINE297,0.000000,0.784480,0.000000,0.784480,0.225870,1.252484
LINE298,0.000000,-0.296754,0.000000,4.595717,2.526480,1.252492
LINE299,0.000000,2.064764,0.188419,3.347706,0.000000,4.698800
LINE300,0.647824,-0.841193,0.000000,-0.000286,0.000000,-1.560460
LINE301,0.000000,-0.387455,0.000000,3.828915,0.209168,1.252455
LINE302,1.826822,-0.841043,4.651116,3.347823,1.179957,1.252367
LINE303,4.855564,-0.841092,4.689083,3.347859,6.994366,1.252485
LINE304,0.000000,1.015773,0.000000,1.015773,0.225870,1.252484
LINE305,0.000000,-0.155425,0.000000,-0.155425,2.526480,1.252492
LINE306,0.000000,2.637356,0.188419,3.347706,0.000000,0.730885
LINE307,0.647824,-0.841193,0.000000,-0.011967,0.000000,-1.552350
LINE308,0.000000,-0.421889,0.000000,3.723028,0.209168,1.252455
LINE309,1.826822,-0.841043,4.651116,3.347823,1.179957,1.252367
LINE310,4.855564,-0.841092,4.689083,3.347859,6.994366,1.252485
LINE311,0.000000,1.761572,0.000000,1.558235,0.225870,1.252484
LINE312,0.000000,2.065898,0.000000,1.367205,2.526480,1.252492
LINE313,0.000000,-0.043744,0.188419,3.347706,0.000000,-1.496809
LINE314,0.647824,-0.841193,0.000000,-0.006042,0.000000,-1.569922
LINE315,0.000000,-0.841082,0.000000,-1.423815,0.209168,1.252455
LINE316,0.259136,-0.841159,0.000000,-0.869831,0.000000,4.642313
LINE317,1.567686,-0.841024,4.651116,3.347823,1.179957,1.252367
LINE318,4.855564,-0.841092,4.689083,3.347859,6.994366,1.252485
LINE319,0.000000,-0.226304,0.000000,3.111398,0.225870,1.252484
LINE320,0.000000,2.186501,0.000000,3.507868,2.526480,1.252492
LINE321,0.647824,-0.841193,0.000000,0.007947,0.000000,-1.555233
LINE322,0.000000,4.702953,0.000000,0.036925,0.209168,1.252455
LINE323,0.259136,-0.841159,0.000000,-0.799776,0.000000,4.638713
LINE324,1.567686,-0.841024,4.651116,3.347823,1.179957,1.252367
LINE325,4.855564,-0.841092,4.689083,3.347859,6.994366,1.252485
LINE326,0.000000,-0.252774,0.000000,2.453575,2.526480,1.252492
LINE327,0.647824,-0.841193,0.000000,0.005166,0.000000,-1.564739
LINE328,0.000000,-0.158407,0.000000,-0.158407,0.209168,1.252455
LINE329,0.259136,-0.841159,0.000000,-0.741694,0.000000,4.636267
LINE330,0.000000,4.033236,0.000000,3.362435,0.225914,1.252369
LINE331,1.567686,-0.841024,4.651116,3.347823,0.954043,1.252366
LINE332,4.855564,-0.841092,4.689083,3.347859,6.994366,1.252485
LINE333,0.647824,-0.841193,0.000000,0.014092,0.000000,-1.568390
LINE334,0.000000,3.109267,0.000000,2.660903,0.209168,1.252455
LINE335,0.259136,-0.841159,0.000000,-0.818206,0.000000,4.631674
LINE336,0.000000,3.930848,0.000000,3.022647,0.225914,1.252369
LINE337,0.000000,4.114185,3.448505,3.347830,0.000000,-1.391310
LINE338,1.567686,-0.841024,1.202610,3.347802,0.954043,1.252366
LINE339,4.855564,-0.841092,4.689083,3.347859,6.994366,1.252485
LINE340,0.647824,-0.841193,0.000000,0.010511,0.000000,4.704075
LINE341,0.000000,3.997955,0.000000,1.785518,0.209168,1.252455
LINE342,0.142107,-0.841159,0.000000,3.044278,0.000000,1.645369
LINE343,0.117029,-0.841159,0.000000,-0.651500,0.000000,4.643767
LINE344,0.000000,4.107994,3.448505,3.347830,0.000000,-1.403023
LINE345,1.567686,-0.841024,1.202610,3.347802,0.954043,1.252366
LINE346,4.855564,-0.841092,4.689083,3.347859,6.994366,1.252485
LINE347,0.647824,-0.841193,0.000000,0.001203,0.000000,-1.540360
LINE348,0.142107,-0.841159,0.000000,1.455928,0.000000,1.655903
LINE349,0.117029,-0.841159,0.000000,-0.583673,0.000000,4.680100
LINE350,0.000000,3.876713,3.448505,3.347830,0.000000,-1.460867
LINE351,1.567686,-0.841024,1.202610,3.347802,0.954043,1.252366
LINE352,4.855564,-0.841092,4.689083,3.347859,6.994366,1.252485
LINE353,0.647824,-0.841193,0.000000,0.031595,0.000000,4.703589
LINE354,0.117029,-0.841159,0.000000,-0.960274,0.000000,4.701298
LINE355,0.000000,3.344792,3.448505,3.347830,0.000000,-1.504681
LINE356,1.567686,-0.841024,1.202610,3.347802,0.954043,1.252366
LINE357,4.855564,-0.841092,4.689083,3.347859,6.994366,1.252485
LINE358,0.647824,-0.841193,0.000000,-0.041353,0.000000,4.655065
LINE359,0.117029,-0.841159,0.000000,-0.463463,0.000000,-1.560392
LINE360,0.000000,3.289668,3.448505,3.347830,0.000000,-1.555056
LINE361,1.567686,-0.841024,1.202610,3.347802,0.954043,1.252366
LINE362,4.855564,-0.841092,4.689083,3.347859,6.994366,1.252485
LINE363,0.647824,-0.841193,0.000000,-0.016625,0.000000,4.663691
LINE364,0.117029,-0.841159,0.000000,-1.284702,0.000000,-1.569644
LINE365,0.000000,3.158315,3.448505,3.347830,0.000000,-1.525318
LINE366,1.567686,-0.841024,1.202610,3.347802,0.954043,1.252366
LINE367,4.855564,-0.841092,4.689083,3.347859,6.994366,1.252485
LINE368,0.647824,-0.841193,0.000000,-0.495718,0.000000,4.426989
LINE369,0.117029,-0.841159,0.000000,4.225899,0.000000,-1.562431
LINE370,0.000000,3.133980,3.448505,3.347830,0.000000,-1.443444
LINE371,1.567686,-0.841024,1.202610,3.347802,0.954043,1.252366
LINE372,4.855564,-0.841092,4.689083,3.347859,6.994366,1.252485
LINE373,0.647824,-0.841193,0.000000,-0.086924,0.000000,3.753259
LINE374,0.117029,-0.841159,0.000000,4.134135,0.000000,4.630057
LINE375,0.000000,2.941665,3.448505,3.347830,0.000000,4.709597
LINE376,1.567686,-0.841024,1.202610,3.347802,0.954043,1.252366
LINE377,4.855564,-0.841092,4.689083,3.347859,4.885306,1.252477
LINE378,0.000000,0.805109,0.000000,2.063747,2.109061,1.252503
LINE379,0.647824,-0.841193,0.000000,-0.086357,0.000000,3.199079
LINE380,0.117029,-0.841159,0.000000,-0.215368,0.000000,4.646840
LINE381,0.000000,2.277724,3.448505,3.347830,0.000000,4.688762
LINE382,1.567686,-0.841024,1.202610,3.347802,0.954043,1.252366
LINE383,4.855564,-0.841092,4.689083,3.347859,4.885306,1.252477
LINE384,0.000000,0.138390,0.000000,2.396006,2.109061,1.252503
LINE385,0.000000,2.486714,0.000000,1.483865,0.000000,-0.953715
LINE386,0.647824,-0.841193,0.000000,-1.016286,0.000000,4.592511
LINE387,0.117029,-0.841159,0.000000,0.339362,0.000000,1.588304
LINE388,0.000000,2.808102,3.448505,3.347830,0.000000,-1.475319
LINE389,1.567686,-0.841024,1.202610,3.347802,0.954043,1.252366
LINE390,4.855564,-0.841092,4.689083,3.347859,4.885306,1.252477
LINE391,0.000000,0.129350,0.000000,2.398778,2.109061,1.252503
LINE392,0.000000,2.495036,0.000000,1.548442,0.000000,-0.951003
LINE393,0.000000,2.782037,3.448505,3.347830,0.000000,-1.464034
LINE394,1.567686,-0.841024,1.202610,3.347802,0.954043,1.252366
LINE395,0.000000,1.177948,0.000000,3.856351,1.280424,1.252482
LINE396,4.855564,-0.841092,4.689083,3.347859,3.604882,1.252475
LINE397,0.000000,0.155932,0.000000,2.479539,2.109061,1.252503
LINE398,0.000000,2.564996,0.000000,1.181281,0.000000,-0.192467
LINE399,0.000000,3.535884,3.448505,3.347830,0.000000,-1.552254
LINE400,1.567686,-0.841024,1.202610,3.347802,0.954043,1.252366
LINE401,0.000000,1.325766,0.000000,4.443902,1.280424,1.252482
LINE402,4.855564,-0.841092,4.689083,3.347859,3.604882,1.252475
LINE403,0.000000,0.906429,0.000000,2.760063,2.109061,1.252503
LINE404,0.000000,2.182488,0.000000,0.883368,0.000000,1.008635
LINE405,0.000000,-1.348287,3.448505,3.347830,0.000000,0.776160
LINE406,1.567686,-0.841024,1.202610,3.347802,0.954043,1.252366
LINE407,0.000000,1.415608,0.000000,-0.257648,1.280424,1.252482
LINE408,4.855564,-0.841092,4.689083,3.347859,3.604882,1.252475
LINE409,0.000000,-1.087575,0.000000,4.013316,0.000000,2.103615
LINE410,0.000000,1.843232,0.000000,2.671680,2.109061,1.252503
LINE411,0.000000,2.311882,0.000000,0.684580,0.000000,1.366002
LINE412,1.567686,-0.841024,1.202610,3.347802,0.954043,1.252366
LINE413,0.000000,1.691141,0.000000,-0.538844,1.280424,1.252482
LINE414,4.855564,-0.841092,4.689083,3.347859,3.604882,1.252475
LINE415,0.000000,-1.064716,0.000000,3.995170,0.000000,2.232235
LINE416,0.000000,1.834539,0.000000,2.863235,2.109061,1.252503
LINE417,0.000000,2.652585,0.000000,0.553930,0.000000,1.486777
LINE418,1.567686,-0.841024,1.202610,3.347802,0.954043,1.252366
LINE419,0.000000,1.642543,0.000000,-0.817591,1.280424,1.252482
LINE420,4.855564,-0.841092,4.689083,3.347859,3.604882,1.252475
LINE421,0.000000,-1.078491,0.000000,4.030792,0.000000,2.085834
LINE422,0.000000,1.561887,0.000000,2.689550,2.109061,1.252503
LINE423,0.000000,2.743648,0.000000,0.650785,0.000000,1.493163
LINE424,1.567686,-0.841024,1.202610,3.347802,0.954043,1.252366
LINE425,0.000000,3.365505,0.000000,0.870917,0.000000,-0.460257
LINE426,0.000000,1.728548,0.000000,-0.739501,1.280424,1.252482
LINE427,4.855564,-0.841092,4.689083,3.347859,3.604882,1.252475
LINE428,0.000000,-1.015828,0.000000,3.772205,0.000000,1.952569
LINE429,0.000000,2.750777,0.000000,2.173030,2.109061,1.252503
LINE430,0.000000,2.817478,0.000000,0.622938,0.000000,1.498957
LINE431,1.567686,-0.841024,1.202610,3.347802,0.954043,1.252366
LINE432,0.000000,4.621278,0.000000,0.274668,0.000000,-1.414087
LINE433,0.000000,1.664849,0.000000,-0.799691,1.280424,1.252482
LINE434,4.855564,-0.841092,4.689083,3.347859,3.604882,1.252475
LINE435,0.000000,-1.081223,0.000000,3.699721,0.000000,1.985868
LINE436,0.000000,1.518244,0.000000,2.868617,2.109061,1.252503
LINE437,0.000000,3.279552,0.000000,0.691756,0.000000,1.520139
LINE438,1.567686,-0.841024,1.202610,3.347802,0.954043,1.252366
LINE439,0.000000,4.694005,0.000000,4.694005,0.000000,1.745079
LINE440,0.000000,1.299196,0.000000,-0.696036,1.280424,1.252482
LINE441,4.855564,-0.841092,4.689083,3.347859,3.604882,1.252475
LINE442,0.000000,-1.190694,0.000000,3.895609,0.000000,1.874636
LINE443,0.000000,0.761167,0.000000,-0.598352,2.109061,1.252503
LINE444,0.000000,3.173476,0.000000,0.518794,0.000000,1.532415
LINE445,1.567686,-0.841024,1.202610,3.347802,0.954043,1.252366
LINE446,0.000000,4.397264,0.000000,2.911060,0.000000,1.845081
LINE447,0.000000,1.070921,0.000000,-0.492704,1.280424,1.252482
LINE448,4.855564,-0.841092,4.689083,3.347859,3.604882,1.252475
LINE449,0.000000,-1.117981,0.000000,4.263420,0.000000,1.994740
LINE450,0.000000,2.351947,0.000000,2.984070,2.109061,1.252503
LINE451,0.000000,3.190108,0.000000,0.532661,0.000000,1.539524
LINE452,1.567686,-0.841024,1.202610,3.347802,0.954043,1.252366
LINE453,0.000000,4.660170,0.000000,4.660170,0.000000,4.637473
LINE454,0.000000,1.050993,0.000000,-0.607547,1.280424,1.252482
LINE455,4.855564,-0.841092,4.689083,3.347859,3.604882,1.252475
LINE456,0.000000,-1.077053,0.000000,3.918183,0.000000,2.004790
LINE457,0.000000,2.960328,0.000000,4.328945,2.109061,1.252503
LINE458,0.000000,3.042527,0.000000,0.496613,0.000000,1.534927
LINE459,1.367039,-0.841021,1.202610,3.347802,0.954043,1.252366
LINE460,0.000000,2.836670,0.000000,3.804821,0.000000,-1.358010
LINE461,0.200647,-0.841048,0.000000,1.250559,0.000000,-1.441966
LINE462,0.000000,1.228325,0.000000,-0.401467,1.280424,1.252482
LINE463,4.855564,-0.841092,4.689083,3.347859,3.604882,1.252475
LINE464,0.000000,-0.878746,0.000000,3.809903,0.000000,1.669853
LINE465,0.000000,2.933087,0.000000,0.482882,0.000000,1.523407
LINE466,1.367039,-0.841021,1.202610,3.347802,0.954043,1.252366
LINE467,0.000000,4.404782,0.000000,2.022161,0.000000,-1.083392
LINE468,0.000000,3.178848,0.000000,2.346960,0.000000,0.665567
LINE469,0.200647,-0.841048,0.000000,1.362302,0.000000,-1.439592
LINE470,0.000000,1.083960,0.000000,-0.202207,1.280424,1.252482
LINE471,4.855564,-0.841092,4.689083,3.347859,3.604882,1.252475
LINE472,0.000000,-0.428864,0.000000,3.898466,0.000000,1.638708
LINE473,0.000000,2.878449,0.000000,0.482081,0.000000,1.514119
LINE474,1.367039,-0.841021,1.202610,3.347802,0.954043,1.252366
LINE475,0.000000,-1.356719,0.000000,-0.249905,0.000000,-0.458019
LINE476,0.200647,-0.841048,0.000000,1.107554,0.000000,-1.417549
LINE477,0.000000,0.843393,0.000000,-0.175801,1.280424,1.252482
LINE478,4.855564,-0.841092,4.689083,3.347859,3.604882,1.252475
LINE479,0.000000,-0.306915,0.000000,3.568106,0.000000,1.616001
LINE480,0.000000,2.761594,0.000000,0.378233,0.000000,1.445131
LINE481,0.965725,-0.841015,1.202610,3.347802,0.954043,1.252366
LINE482,0.000000,1.382656,0.000000,4.694677,0.000000,1.755605
LINE483,0.401314,-0.841034,0.000000,0.264947,0.000000,-1.541511
LINE484,0.200647,-0.841048,0.000000,1.425486,0.000000,1.641352
LINE485,0.000000,1.567875,0.000000,-0.088752,1.280424,1.252482
LINE486,4.855564,-0.841092,4.689083,3.347859,3.604882,1.252475
LINE487,0.000000,-0.014947,0.000000,3.413551,0.000000,1.703105
LINE488,0.000000,4.037171,0.000000,1.503571,0.000000,-0.099531
LINE489,0.965725,-0.841015,1.202610,3.347802,0.954043,1.252366
LINE490,0.000000,1.560539,0.000000,4.088504,0.000000,-0.760177
LINE491,0.179755,-0.841034,0.000000,0.262269,0.000000,-1.553134
LINE492,0.221559,-0.841034,0.000000,0.020808,0.000000,1.581988
LINE493,0.200647,-0.841048,0.000000,1.411559,0.000000,1.499409
LINE494,0.000000,1.286877,0.000000,0.164633,1.280424,1.252482
LINE495,4.855564,-0.841092,4.689083,3.347859,3.604882,1.252475
LINE496,0.000000,0.350521,0.000000,3.288873,0.000000,1.715361
LINE497,0.000000,1.555054,0.000000,0.391446,0.000000,-1.538532
LINE498,0.965725,-0.841015,1.202610,3.347802,0.954043,1.252366
LINE499,0.000000,4.038894,0.000000,0.000218,0.000000,2.566837
LINE500,0.179755,-0.841034,0.000000,0.340314,0.000000,-1.535959
LINE501,0.221559,-0.841034,0.000000,0.560279,0.000000,1.495887
LINE502,0.200647,-0.841048,0.000000,1.115499,0.000000,-1.449401
LINE503,0.000000,1.779943,0.000000,-0.063006,1.280424,1.252482
LINE504,4.855564,-0.841092,4.689083,3.347859,3.604882,1.252475
LINE505,0.000000,0.409834,0.000000,3.270555,0.000000,1.837539
LINE506,0.000000,2.992017,0.000000,2.992017,0.000000,-0.075346
LINE507,0.965725,-0.841015,1.202610,3.347802,0.954043,1.252366
LINE508,0.000000,-1.475022,0.000000,-1.475022,0.000000,4.155373
LINE509,0.179755,-0.841034,0.000000,0.237037,0.000000,-1.482486
LINE510,0.200647,-0.841048,0.000000,1.186689,0.000000,-1.542539
LINE511,0.000000,2.800442,0.000000,0.082254,1.280424,1.252482
LINE512,0.000000,2.335990,0.762356,3.347722,0.000000,-1.560173
LINE513,4.855564,-0.841092,3.926727,3.347886,3.604882,1.252475
LINE514,0.000000,1.300374,0.000000,3.060247,0.000000,1.726164
LINE515,0.000000,0.638743,1.202610,3.347802,0.954043,1.252366
LINE516,0.000000,-0.201681,0.000000,-0.201681,0.000000,2.996186
LINE517,0.965725,-0.841015,0.000000,-1.029460,0.000000,1.530099
LINE518,0.179755,-0.841034,0.000000,0.221033,0.000000,-1.458144
LINE519,0.200647,-0.841048,0.000000,1.077738,0.000000,-1.490969
LINE520,0.000000,2.931016,0.000000,0.331027,1.280424,1.252482
LINE521,0.000000,1.952018,0.762356,3.347722,0.000000,1.458835
LINE522,4.855564,-0.841092,3.926727,3.347886,3.604882,1.252475
LINE523,0.000000,-0.012699,0.000000,3.375550,0.000000,1.738546
LINE524,0.000000,0.625663,1.202610,3.347802,0.954043,1.252366
LINE525,0.000000,-1.430649,0.000000,-0.392669,0.000000,-1.214359
LINE526,0.965725,-0.841015,0.000000,-1.063979,0.000000,1.530029
LINE527,0.179755,-0.841034,0.000000,0.004774,0.000000,4.650427
LINE528,0.200647,-0.841048,0.000000,1.018183,0.000000,-1.488802
LINE529,0.000000,-0.942413,0.000000,3.948725,1.280424,1.252482
LINE530,4.855564,-0.841092,3.926727,3.347886,3.604882,1.252475
LINE531,0.000000,-0.761237,0.000000,3.512926,0.000000,1.638136
LINE532,0.000000,0.615115,1.202610,3.347802,0.954043,1.252366
LINE533,0.000000,2.041776,0.000000,0.203097,0.000000,-0.750550
LINE534,0.965725,-0.841015,0.000000,-1.047067,0.000000,1.528427
LINE535,0.179755,-0.841034,0.000000,0.269171,0.000000,3.909056
LINE536,0.200647,-0.841048,0.000000,0.899481,0.000000,-1.184867
LINE537,0.000000,4.032872,0.000000,3.880011,1.046105,1.252483
LINE538,0.000000,-0.384279,0.000000,2.886894,0.234318,1.252473
LINE539,4.855564,-0.841092,3.926727,3.347886,3.604882,1.252475
LINE540,0.000000,4.175133,0.000000,3.175093,0.000000,0.315974
LINE541,0.000000,0.581238,1.202610,3.347802,0.954043,1.252366
LINE542,0.000000,4.171135,0.000000,3.564489,0.000000,2.189041
LINE543,0.965725,-0.841015,0.000000,-1.121898,0.000000,1.526557
LINE544,0.179755,-0.841034,0.000000,4.534161,0.000000,1.651055
LINE545,0.200647,-0.841048,0.000000,1.191811,0.000000,-1.334387
LINE546,0.000000,4.268469,0.000000,4.268469,1.046105,1.252483
LINE547,4.855564,-0.841092,3.926727,3.347886,3.604882,1.252475
LINE548,0.000000,4.194971,0.000000,2.475118,0.000000,2.020732
LINE549,0.000000,0.588961,1.202610,3.347802,0.954043,1.252366
LINE550,0.000000,3.091710,0.000000,-0.402980,0.000000,-1.567709
LINE551,0.229932,-0.841018,0.000000,-0.466447,0.000000,1.546689
LINE552,0.735793,-0.841015,0.000000,3.162882,0.000000,-1.532054
LINE553,0.179755,-0.841034,0.000000,2.763961,0.000000,1.550423
LINE554,0.200647,-0.841048,0.000000,1.185886,0.000000,1.280357
LINE555,0.000000,0.233232,0.000000,4.587029,1.046105,1.252483
LINE556,4.855564,-0.841092,3.926727,3.347886,3.604882,1.252475
LINE557,0.000000,3.953059,0.000000,3.953059,0.000000,4.216082
LINE558,0.000000,0.591469,1.202610,3.347802,0.954043,1.252366
LINE559,0.000000,4.118776,0.000000,-0.348988,0.000000,1.322820
LINE560,0.229932,-0.841018,0.000000,-0.641036,0.000000,1.518358
LINE561,0.735793,-0.841015,0.000000,4.033261,0.000000,-1.554840
LINE562,0.179755,-0.841034,0.000000,-0.065762,0.000000,2.158084
LINE563,0.200647,-0.841048,0.000000,1.318235,0.000000,1.472249
LINE564,4.855564,-0.841092,3.926727,3.347886,3.604882,1.252475
LINE565,0.000000,4.145898,0.000000,0.249244,0.000000,4.299161
LINE566,0.000000,0.598885,0.201123,3.347796,0.954042,1.252366
LINE567,0.000000,2.297768,0.000000,2.759183,0.000000,1.494052
LINE568,0.000000,0.945171,1.001487,3.347803,0.000000,1.668375
LINE569,0.229932,-0.841018,0.000000,4.017793,0.000000,1.577959
LINE570,0.200647,-0.841048,0.000000,1.161237,0.000000,1.554492
LINE571,4.855564,-0.841092,3.926727,3.347886,3.604882,1.252475
LINE572,0.000000,0.747493,0.201123,3.347796,0.954043,1.252366
LINE573,0.000000,3.672193,0.000000,-0.454695,0.000000,1.612645
LINE574,0.000000,0.950337,1.001487,3.347803,0.000000,1.675615
LINE575,0.229932,-0.841018,0.000000,-1.314916,0.000000,1.640028
LINE576,0.200647,-0.841048,0.000000,0.764632,0.000000,-1.533317
LINE577,4.855564,-0.841092,3.926727,3.347886,3.604882,1.252475
LINE578,0.000000,2.234648,0.201123,3.347796,0.954042,1.252366
LINE579,0.000000,4.467363,0.000000,1.430085,0.000000,1.611163
LINE580,0.000000,0.863625,0.000000,2.653823,0.000000,1.533141
LINE581,0.000000,1.178196,1.001487,3.347803,0.000000,1.669548
LINE582,0.229932,-0.841018,0.000000,0.001879,0.000000,2.172379
LINE583,0.200647,-0.841048,0.000000,1.813656,0.000000,1.414298
LINE584,0.000000,-1.565389,0.192682,3.347714,0.000000,1.770604
LINE585,4.855564,-0.841092,3.734045,3.347895,3.604882,1.252475
LINE586,0.000000,2.896216,0.201123,3.347796,0.954042,1.252366
LINE587,0.000000,2.909677,0.000000,1.443370,0.000000,4.345428
LINE588,0.000000,0.641480,0.000000,2.760729,0.000000,1.516059
LINE589,0.000000,1.596930,1.001487,3.347803,0.000000,1.680889
LINE590,0.229932,-0.841018,0.000000,-0.584490,0.000000,2.241314
LINE591,0.200647,-0.841048,0.000000,1.207046,0.000000,1.543258
LINE592,0.000000,-1.440526,0.192682,3.347714,0.000000,1.799543
LINE593,4.855564,-0.841092,3.734045,3.347895,3.604882,1.252475
LINE594,0.000000,-0.276371,0.201123,3.347796,0.000000,0.816718
LINE595,0.000000,4.449087,0.000000,4.449087,0.954042,1.252366
LINE596,0.000000,0.617281,0.000000,2.730442,0.000000,1.467715
LINE597,0.000000,1.408915,1.001487,3.347803,0.000000,1.673564
LINE598,0.229932,-0.841018,0.000000,3.456926,0.000000,1.542405
LINE599,0.200647,-0.841048,0.000000,2.371454,0.000000,1.555181
LINE600,0.000000,-1.287754,0.192682,3.347714,0.000000,1.664419
LINE601,0.000000,2.897815,0.000000,-0.360239,0.188300,1.252467
LINE602,4.855564,-0.841092,3.734045,3.347895,3.416582,1.252476
LINE603,0.000000,1.276167,0.201123,3.347796,0.000000,1.137754
LINE604,0.000000,-1.114031,0.000000,-0.433367,0.000000,1.685976
LINE605,0.000000,2.413586,0.000000,3.831459,0.000000,1.750052
LINE606,0.000000,-1.437026,0.000000,-1.493999,0.954042,1.252366
LINE607,0.000000,-0.149575,0.000000,-0.149575,0.000000,3.066247
LINE608,0.000000,0.743236,0.000000,2.920331,0.000000,1.562748
LINE609,0.000000,1.393501,1.001487,3.347803,0.000000,1.667258
LINE610,0.229932,-0.841018,0.000000,0.105797,0.000000,-1.570675
LINE611,0.200647,-0.841048,0.000000,1.449976,0.000000,1.306971
LINE612,0.000000,-1.018093,0.192682,3.347714,0.000000,1.647982
LINE613,0.000000,3.323080,0.000000,2.042942,0.188300,1.252467
LINE614,4.855564,-0.841092,3.734045,3.347895,3.416582,1.252476
LINE615,0.000000,0.177460,0.201123,3.347796,0.000000,1.479064
LINE616,0.000000,1.751687,0.000000,1.751687,0.000000,-0.866428
LINE617,0.000000,-0.201681,0.000000,-0.201681,0.000000,2.996186
LINE618,0.000000,3.177920,0.000000,-0.333549,0.954042,1.252366
LINE619,0.000000,0.802308,0.000000,2.781564,0.000000,1.563476
LINE620,0.000000,1.459395,1.001487,3.347803,0.000000,1.667920
LINE621,0.200647,-0.841048,0.000000,2.725410,0.000000,-1.557999
LINE622,0.000000,-1.204295,0.192682,3.347714,0.000000,1.631533
LINE623,0.000000,3.641730,0.226205,3.347702,0.000000,-1.553141
LINE624,4.855564,-0.841092,3.507841,3.347907,3.416582,1.252476
LINE625,0.000000,0.117829,0.201123,3.347796,0.000000,1.514453
LINE626,0.000000,0.523066,0.000000,3.061129,0.000000,1.535251
LINE627,0.000000,1.252661,1.001487,3.347803,0.000000,1.670280
LINE628,0.200647,-0.841048,0.000000,0.153262,0.000000,1.550452
LINE629,0.000000,-1.370381,0.192682,3.347714,0.000000,1.639810
LINE630,0.000000,4.669181,0.226205,3.347702,0.000000,-1.555454
LINE631,4.855564,-0.841092,3.507841,3.347907,3.416582,1.252476
LINE632,0.000000,-0.531166,0.201123,3.347796,0.000000,1.526223
LINE633,0.000000,1.093919,0.000000,2.080397,0.000000,1.537868
LINE634,0.000000,1.251315,1.001487,3.347803,0.000000,1.674138
LINE635,0.000000,-1.359102,0.192682,3.347714,0.000000,1.610109
LINE636,0.000000,-0.754577,0.226205,3.347702,0.000000,4.704807
LINE637,4.855564,-0.841092,3.507841,3.347907,3.416582,1.252476
LINE638,0.000000,0.000000,0.201123,3.347796,0.000000,-0.067519
LINE639,0.000000,1.263031,0.000000,1.050158,0.000000,0.785206
LINE640,0.000000,1.079498,1.001487,3.347803,0.000000,1.675043
LINE641,0.000000,-1.287572,0.192682,3.347714,0.000000,1.620129
LINE642,0.000000,4.192115,0.226205,3.347702,0.000000,1.841550
LINE643,4.855564,-0.841092,3.507841,3.347907,3.416582,1.252476
LINE644,0.000000,0.786448,0.000000,1.740738,0.000000,2.033143
LINE645,0.000000,0.966075,1.001487,3.347803,0.000000,1.688848
LINE646,0.000000,-1.194302,0.192682,3.347714,0.000000,1.611593
LINE647,0.000000,4.700478,0.226205,3.347702,0.000000,1.676336
LINE648,4.855564,-0.841092,3.507841,3.347907,3.416582,1.252476
LINE649,0.000000,1.423034,0.000000,0.572205,0.000000,1.073561
LINE650,0.000000,1.262352,1.001487,3.347803,0.000000,1.680597
LINE651,0.000000,-1.116899,0.192682,3.347714,0.000000,1.626226
LINE652,0.000000,-1.159351,0.226205,3.347702,0.000000,1.805173
LINE653,4.855564,-0.841092,3.507841,3.347907,3.416582,1.252476
LINE654,0.000000,2.015453,0.000000,1.733282,0.000000,1.757732
LINE655,0.000000,0.490433,0.821306,3.347804,0.000000,1.664993
LINE656,0.000000,-0.350003,0.180181,3.347799,0.000000,-1.553352
LINE657,0.000000,-1.098490,0.192682,3.347714,0.000000,1.647910
LINE658,0.000000,-1.259443,0.226205,3.347702,0.000000,2.311271
LINE659,4.855564,-0.841092,3.507841,3.347907,3.416582,1.252476
LINE660,0.000000,2.368459,0.000000,2.006141,0.000000,1.957644
LINE661,0.000000,1.853135,0.821306,3.347804,0.000000,4.286763
LINE662,0.000000,0.282810,0.180181,3.347799,0.000000,4.461256
LINE663,0.000000,-0.713427,0.192682,3.347714,0.000000,1.620032
LINE664,0.000000,4.463195,0.226205,3.347702,0.000000,1.854945
LINE665,4.855564,-0.841092,3.507841,3.347907,3.416582,1.252476
LINE666,0.000000,2.438409,0.000000,1.970365,0.000000,-1.512061
LINE667,0.000000,1.388682,0.821306,3.347804,0.000000,4.655773
LINE668,0.000000,0.075459,0.180181,3.347799,0.000000,1.599424
LINE669,0.000000,-0.626283,0.192682,3.347714,0.000000,1.612260
LINE670,0.000000,4.667146,0.226205,3.347702,0.000000,1.906097
LINE671,3.948298,-0.841069,0.000000,0.308923,0.000000,1.544638
LINE672,0.907266,-0.841189,3.507841,3.347907,3.416582,1.252476
LINE673,0.000000,2.019971,0.000000,3.440505,0.000000,-0.751790
LINE674,0.000000,2.169113,0.821306,3.347804,0.000000,-1.527375
LINE675,0.000000,0.837902,0.180181,3.347799,0.000000,1.591135
LINE676,0.000000,-0.635398,0.192682,3.347714,0.000000,1.603356
LINE677,0.000000,-1.010320,0.226205,3.347702,0.000000,1.563628
LINE678,3.948298,-0.841069,0.000000,0.670260,0.000000,1.555649
LINE679,0.907266,-0.841189,3.507841,3.347907,3.416582,1.252476
LINE680,0.000000,1.260744,0.000000,4.703356,0.000000,2.996186
LINE681,0.000000,-0.287669,0.821306,3.347804,0.000000,1.638084
LINE682,0.000000,-0.480536,0.192682,3.347714,0.000000,1.592504
LINE683,0.000000,0.203707,0.226205,3.347702,0.000000,1.558721
LINE684,3.948298,-0.841069,0.000000,0.107631,0.000000,1.565947
LINE685,0.907266,-0.841189,3.507841,3.347907,3.416582,1.252476
LINE686,0.000000,-0.826103,0.192682,3.347714,0.000000,1.596506
LINE687,0.000000,0.892986,0.226205,3.347702,0.000000,1.490440
LINE688,3.948298,-0.841069,0.000000,0.124810,0.000000,1.561516
LINE689,0.000000,3.323026,0.000000,3.808728,0.414301,1.252466
LINE690,0.907266,-0.841189,3.507841,3.347907,3.002281,1.252477
LINE691,0.000000,-0.831381,0.192682,3.347714,0.000000,1.597369
LINE692,3.948298,-0.841069,0.000000,0.225447,0.000000,1.536579
LINE693,0.000000,2.953516,0.000000,3.845470,0.205058,1.252466
LINE694,0.000000,-0.736088,0.000000,3.164886,0.209243,1.252466
LINE695,0.000000,0.206361,0.121492,3.347745,0.000000,1.451545
LINE696,0.907266,-0.841189,3.386348,3.347913,3.002281,1.252477
LINE697,0.000000,-0.843155,0.192682,3.347714,0.000000,1.609169
LINE698,3.948298,-0.841069,0.000000,0.282438,0.000000,1.553007
LINE699,0.000000,3.368029,0.000000,3.812454,0.205058,1.252466
LINE700,0.000000,4.321016,0.000000,0.181204,0.209243,1.252466
LINE701,0.000000,0.905672,0.121492,3.347745,0.000000,1.557888
LINE702,0.907266,-0.841189,3.386348,3.347913,3.002281,1.252477
LINE703,0.000000,-0.799080,0.192682,3.347714,0.000000,1.607264
LINE704,3.948298,-0.841069,0.000000,0.290143,0.000000,1.548420
LINE705,0.000000,3.550081,0.000000,3.878210,0.205058,1.252466
LINE706,0.907266,-0.841189,3.386348,3.347913,3.002281,1.252477
LINE707,0.000000,-1.246006,0.000000,3.576841,0.000000,1.460948
LINE708,0.000000,-0.804461,0.192682,3.347714,0.000000,1.606209
LINE709,3.948298,-0.841069,0.000000,0.299974,0.000000,1.552921
LINE710,0.000000,-1.409785,0.000000,3.922213,0.205058,1.252466
LINE711,0.480804,-0.841215,3.386348,3.347913,3.002281,1.252477
LINE712,0.426462,-0.841160,0.000000,3.510539,0.000000,-1.414161
LINE713,0.000000,-1.148526,0.000000,-1.158674,0.000000,1.411199
LINE714,0.000000,-0.525698,0.192682,3.347714,0.000000,1.571470
LINE715,3.948298,-0.841069,0.000000,0.300258,0.000000,1.554391
LINE716,0.000000,3.752331,0.000000,4.326377,0.205058,1.252466
LINE717,0.480804,-0.841215,3.386348,3.347913,3.002281,1.252477
LINE718,0.426462,-0.841160,0.000000,3.504430,0.000000,-1.392882
LINE719,0.000000,-1.183902,0.000000,-1.449616,0.000000,1.350114
LINE720,0.000000,-0.773635,0.192682,3.347714,0.000000,1.567043
LINE721,3.948298,-0.841069,0.000000,0.296017,0.000000,1.549108
LINE722,0.000000,3.230344,0.000000,3.602149,0.205058,1.252466
LINE723,0.480804,-0.841215,0.406460,3.347906,3.002281,1.252477
LINE724,0.000000,-0.410642,2.979889,3.347914,0.000000,1.573585
LINE725,0.426462,-0.841160,0.000000,3.511104,0.000000,-1.181537
LINE726,0.000000,-1.094467,0.000000,-1.352407,0.000000,1.430910
LINE727,0.000000,-0.638159,0.192682,3.347714,0.000000,1.464474
LINE728,3.948298,-0.841069,0.000000,0.257653,0.000000,1.552292
LINE729,0.000000,3.107242,0.000000,-0.157389,0.205058,1.252466
LINE730,0.480804,-0.841215,0.406460,3.347906,3.002281,1.252477
LINE731,0.000000,-0.421527,2.979889,3.347914,0.000000,1.574134
LINE732,0.426462,-0.841160,0.000000,3.516706,0.000000,0.893506
LINE733,0.000000,-1.167928,0.000000,-1.238040,0.000000,1.523493
LINE734,0.000000,-0.746101,0.192682,3.347714,0.000000,4.651757
LINE735,3.948298,-0.841069,0.000000,0.341318,0.000000,1.538210
LINE736,0.000000,2.978924,0.000000,-0.185769,0.205058,1.252466
LINE737,0.480804,-0.841215,0.406460,3.347906,3.002281,1.252477
LINE738,0.000000,-0.435070,2.979889,3.347914,0.000000,1.570370
LINE739,0.426462,-0.841160,0.000000,3.550896,0.000000,0.862077
LINE740,0.000000,-0.925426,0.000000,-1.453465,0.000000,1.617077
LINE741,0.000000,-0.722269,0.192682,3.347714,0.000000,4.547500
LINE742,3.948298,-0.841069,0.000000,0.279762,0.000000,1.565576
LINE743,0.000000,2.986508,0.000000,0.011641,0.205058,1.252466
LINE744,0.480804,-0.841215,0.406460,3.347906,3.002281,1.252477
LINE745,0.000000,-0.536714,2.753584,3.347916,0.000000,4.666544
LINE746,0.000000,-0.460629,0.226304,3.347896,0.000000,1.575232
LINE747,0.426462,-0.841160,0.000000,3.500134,0.000000,-0.757044
LINE748,0.000000,-0.904156,0.000000,-1.387593,0.000000,1.783231
LINE749,0.000000,-0.631181,0.192682,3.347714,0.000000,4.668682
LINE750,3.948298,-0.841069,0.000000,0.445146,0.000000,1.545666
LINE751,0.000000,4.318681,0.000000,-0.219070,0.205058,1.252466
LINE752,0.480804,-0.841215,0.406460,3.347906,0.000000,1.309286
LINE753,0.000000,-0.394542,0.000000,3.262993,3.002281,1.252477
LINE754,0.000000,-0.833831,2.753584,3.347916,0.000000,1.329033
LINE755,0.000000,-0.661120,0.226304,3.347896,0.000000,1.547451
LINE756,0.426462,-0.841160,0.000000,3.443513,0.000000,-1.239533
LINE757,0.000000,-0.918188,0.000000,4.543387,0.000000,1.716409
LINE758,0.000000,3.507330,0.192682,3.347714,0.000000,4.668223
LINE759,3.948298,-0.841069,0.000000,0.363828,0.000000,1.566500
LINE760,0.000000,3.231795,0.000000,3.407283,0.205058,1.252466
LINE761,0.480804,-0.841215,0.406460,3.347906,0.000000,1.298476
LINE762,0.000000,-0.393479,0.000000,3.255718,3.002281,1.252477
LINE763,0.000000,-0.826189,0.226304,3.347896,0.000000,1.530162
LINE764,0.426462,-0.841160,0.000000,3.459910,0.000000,-1.271097
LINE765,0.000000,4.531147,0.000000,-1.209498,0.000000,1.692932
LINE766,0.000000,-0.774779,0.192682,3.347714,0.000000,4.675891
LINE767,3.948298,-0.841069,0.000000,0.400273,0.000000,1.582729
LINE768,0.000000,-0.186449,0.000000,4.452005,0.205058,1.252466
LINE769,0.480804,-0.841215,0.406460,3.347906,0.000000,1.276021
LINE770,0.000000,-0.130879,0.000000,-0.208687,1.704240,1.252479
LINE771,0.000000,-0.440839,0.000000,3.277422,1.298041,1.252474
LINE772,0.000000,-1.166364,0.226304,3.347896,0.000000,1.477637
LINE773,0.426462,-0.841160,0.000000,3.466461,0.000000,-1.242686
LINE774,0.000000,4.639286,0.000000,-0.486994,0.000000,1.738783
LINE775,0.000000,-0.151322,0.192682,3.347714,0.000000,1.680085
LINE776,3.948298,-0.841069,0.000000,0.349137,0.000000,1.499976
LINE777,0.000000,2.701632,0.000000,1.139401,0.205058,1.252466
LINE778,0.480804,-0.841215,0.406460,3.347906,0.000000,1.281549
LINE779,0.000000,0.128295,0.000000,-1.130146,1.704240,1.252479
LINE780,0.000000,-0.328851,0.000000,3.517827,1.298041,1.252474
LINE781,0.000000,-0.615391,0.226304,3.347896,0.000000,1.540232
LINE782,0.426462,-0.841160,0.000000,3.490102,0.000000,-1.277878
LINE783,0.000000,-0.652158,0.000000,-1.326360,0.000000,1.451665
LINE784,0.000000,4.225219,0.192682,3.347714,0.000000,1.535257
LINE785,3.948298,-0.841069,0.000000,0.356712,0.000000,1.514792
LINE786,0.480804,-0.841215,0.406460,3.347906,0.000000,1.293155
LINE787,0.000000,-0.341308,0.000000,3.281506,1.298041,1.252474
LINE788,0.000000,-0.443423,0.226304,3.347896,0.000000,1.498697
LINE789,0.426462,-0.841160,0.000000,3.479201,0.000000,-1.272352
LINE790,0.000000,-0.567596,0.000000,4.501680,0.000000,1.627947
LINE791,2.496993,-0.841067,0.000000,0.319614,0.000000,1.545156
LINE792,1.451304,-0.841075,0.000000,0.293878,0.000000,1.565134
LINE793,0.480804,-0.841215,0.406460,3.347906,0.000000,1.314504
LINE794,0.000000,-0.390726,0.000000,2.836076,1.298041,1.252474
LINE795,0.000000,0.103803,0.226304,3.347896,0.000000,1.362932
LINE796,0.426462,-0.841160,0.000000,3.458772,0.000000,-1.412568
LINE797,0.000000,-0.821242,0.000000,-0.664625,0.000000,4.354834
LINE798,2.496993,-0.841067,0.000000,0.201798,0.000000,1.606791
LINE799,1.451304,-0.841075,0.000000,3.354267,0.000000,1.574135
LINE800,0.480804,-0.841215,0.000000,2.941803,0.000000,1.570358
LINE801,0.000000,0.008104,0.406460,3.347906,0.000000,-1.144071
LINE802,0.000000,-0.582568,0.000000,2.724015,1.298041,1.252474
LINE803,0.000000,2.102492,0.226304,3.347896,0.000000,-1.379690
LINE804,0.426462,-0.841160,0.000000,3.475334,0.000000,-1.381263
LINE805,0.000000,2.390578,0.000000,1.012772,0.000000,4.293318
LINE806,2.496993,-0.841067,0.000000,0.200239,0.000000,1.592463
LINE807,1.451304,-0.841075,0.000000,-0.982717,0.000000,1.552173
LINE808,0.480804,-0.841215,0.000000,2.195117,0.000000,1.564452
LINE809,0.000000,-0.207777,0.406460,3.347906,0.000000,-1.085328
LINE810,0.000000,1.757602,0.000000,1.757602,0.000000,-0.855407
LINE811,0.000000,-0.010584,0.000000,2.826774,1.298041,1.252474
LINE812,0.000000,2.207203,0.226304,3.347896,0.000000,4.683803
LINE813,0.426462,-0.841160,0.000000,3.488119,0.000000,-1.431550
LINE814,0.000000,-0.407586,0.000000,2.743659,0.000000,1.836932
LINE815,2.496993,-0.841067,0.000000,0.245794,0.000000,1.630249
LINE816,1.451304,-0.841075,0.000000,-0.172242,0.000000,1.538841
LINE817,0.480804,-0.841215,0.000000,2.555092,0.000000,1.573793
LINE818,0.000000,-0.500526,0.406460,3.347906,0.000000,-1.067901
LINE819,0.000000,1.396888,0.000000,1.396888,0.000000,4.317468
LINE820,0.000000,-0.339405,0.000000,2.283326,1.298041,1.252474
LINE821,0.426462,-0.841160,0.000000,3.462888,0.000000,-1.468518
LINE822,0.000000,4.062576,0.000000,0.428641,0.000000,4.547159
LINE823,2.496993,-0.841067,0.000000,-0.007029,0.000000,1.576709
LINE824,0.480804,-0.841215,0.000000,0.656853,0.000000,1.577074
LINE825,0.000000,-0.625703,0.406460,3.347906,0.000000,-1.186228
LINE826,0.000000,3.376552,0.000000,-0.867522,0.000000,1.526977
LINE827,0.000000,0.300105,0.000000,3.171156,1.298041,1.252474
LINE828,0.426462,-0.841160,0.000000,3.454830,0.000000,-1.471697
LINE829,0.000000,2.939912,0.000000,2.939912,0.000000,-0.145406
LINE830,2.496993,-0.841067,0.000000,4.382471,0.000000,1.528017
LINE831,0.480804,-0.841215,0.000000,0.789688,0.000000,1.546368
LINE832,0.000000,-0.409924,0.406460,3.347906,0.000000,-1.228856
LINE833,0.000000,1.672103,0.000000,1.672103,0.000000,1.323834
LINE834,0.000000,3.496166,0.000000,3.496166,1.298041,1.252474
LINE835,0.426462,-0.841160,0.000000,3.459028,0.000000,-1.393833
LINE836,2.496993,-0.841067,0.000000,2.875919,0.000000,1.793124
LINE837,0.480804,-0.841215,0.000000,0.705100,0.000000,1.483757
LINE838,0.000000,-0.515752,0.406460,3.347906,0.000000,-1.251153
LINE839,0.000000,4.605377,0.000000,1.353492,0.000000,4.546745
LINE840,0.426462,-0.841160,0.000000,3.458172,0.000000,-1.412335
LINE841,2.496993,-0.841067,0.000000,2.992741,0.000000,1.806558
LINE842,0.480804,-0.841215,0.000000,0.548988,0.000000,-0.831468
LINE843,0.000000,-0.520857,0.406460,3.347906,0.000000,4.671698
LINE844,0.000000,-0.658918,0.000000,-0.216380,0.000000,-1.084394
LINE845,0.000000,0.874301,0.000000,-0.241056,0.000000,1.259310
LINE846,0.426462,-0.841160,0.000000,3.466397,0.000000,-1.442441
LINE847,2.496993,-0.841067,0.000000,3.773127,0.000000,1.668560
LINE848,0.480804,-0.841215,0.000000,0.819389,0.000000,-0.946823
LINE849,0.000000,-0.462310,0.406460,3.347906,0.000000,4.686350
LINE850,0.000000,-0.629658,0.000000,-0.240721,0.000000,-1.063843
LINE851,0.000000,3.404642,0.000000,-0.967166,0.000000,-0.597270
LINE852,0.426462,-0.841160,0.000000,3.539093,0.000000,-1.530745
LINE853,2.496993,-0.841067,0.000000,0.166993,0.000000,1.894729
LINE854,0.480804,-0.841215,0.000000,0.529685,0.000000,1.578397
LINE855,0.000000,-0.389269,0.406460,3.347906,0.000000,4.703154
LINE856,0.000000,-0.623960,0.000000,-0.214515,0.000000,-1.100767
LINE857,0.000000,1.956059,0.000000,2.814950,0.000000,4.509191
LINE858,0.426462,-0.841160,0.000000,3.496472,0.000000,-1.537448
LINE859,0.221661,-0.841083,0.000000,1.802603,0.000000,-1.504192
LINE860,2.275332,-0.841065,0.000000,-0.318430,0.000000,1.616268
LINE861,0.480804,-0.841215,0.000000,0.530374,0.000000,1.559633
LINE862,0.000000,-0.377222,0.406460,3.347906,0.000000,4.704626
LINE863,0.000000,-0.605242,0.000000,-0.259712,0.000000,-0.949909
LINE864,0.000000,3.992581,0.000000,-0.592651,0.000000,1.430529
LINE865,0.426462,-0.841160,0.000000,3.515266,0.000000,-0.793577
LINE866,0.480804,-0.841215,0.000000,0.516401,0.000000,1.551955
LINE867,0.000000,-0.312497,0.406460,3.347906,0.000000,4.703073
LINE868,0.000000,-0.494058,0.000000,-0.384771,0.000000,-0.485528
LINE869,0.000000,0.873674,0.000000,-0.649542,0.000000,4.335842
LINE870,0.426462,-0.841160,0.000000,3.405030,0.000000,4.648808
LINE871,0.480804,-0.841215,0.000000,0.446621,0.000000,1.572627
LINE872,0.000000,0.056836,0.209516,3.347906,0.000000,4.678549
LINE873,0.000000,2.610426,0.196944,3.347905,0.000000,-0.067519
LINE874,0.000000,-0.739306,0.000000,-0.561593,0.000000,0.260733
LINE875,0.000000,0.979885,0.000000,1.197405,0.000000,-1.002860
LINE876,0.426462,-0.841160,0.000000,3.470513,0.000000,-1.530780
LINE877,0.480804,-0.841215,0.000000,0.461422,0.000000,1.574490
LINE878,0.000000,-0.264914,0.209516,3.347906,0.000000,-0.067519
LINE879,0.000000,-0.531166,0.196944,3.347905,0.000000,-0.067519
LINE880,0.000000,4.185950,0.000000,3.444665,0.000000,1.823614
LINE881,0.000000,4.331928,0.000000,4.331928,0.000000,1.397509
LINE882,0.426462,-0.841160,0.000000,3.316983,0.000000,-1.346487
LINE883,0.480804,-0.841215,0.000000,0.428532,0.000000,1.604676
LINE884,0.000000,0.177460,0.209516,3.347906,0.000000,-0.067519
LINE885,0.000000,0.000000,0.196944,3.347905,0.000000,-0.067519
LINE886,0.426462,-0.841160,0.000000,2.459680,0.000000,4.673493
LINE887,0.250855,-0.841214,0.000000,0.534026,0.000000,1.598871
LINE888,0.229950,-0.841215,0.000000,3.388047,0.000000,1.492847
LINE889,0.000000,1.503278,0.209516,3.347906,0.000000,-1.510116
LINE890,0.426462,-0.841160,0.000000,2.163966,0.000000,4.515593
LINE891,0.250855,-0.841214,0.000000,0.475532,0.000000,1.612145
LINE892,0.229950,-0.841215,0.000000,3.712497,0.000000,1.511932
LINE893,0.000000,0.396129,0.209516,3.347906,0.000000,-0.067519
LINE894,0.225774,-0.841159,0.000000,1.747245,0.000000,1.612030
LINE895,0.200687,-0.841161,0.000000,3.276969,0.000000,-1.527850
LINE896,0.250855,-0.841214,0.000000,1.111663,0.000000,1.662424
LINE897,0.229950,-0.841215,0.000000,4.209269,0.000000,0.652617
LINE898,0.000000,0.000000,0.209516,3.347906,0.000000,3.074074
LINE899,0.225774,-0.841159,0.000000,2.537083,0.000000,4.667052
LINE900,0.250855,-0.841214,0.000000,1.975839,0.000000,3.114293
LINE901,0.250855,-0.841214,0.000000,0.398705,0.000000,1.730417
LINE902,0.250855,-0.841214,0.000000,3.162758,0.000000,4.616989
LINE903,0.250855,-0.841214,0.000000,2.723600,0.000000,4.493934
LINE904,0.250855,-0.841214,0.000000,3.347198,0.000000,1.627019
LINE905,0.250855,-0.841214,0.000000,1.377253,0.000000,1.524182
